*INCLUDE, INPUT=sphere.inp

*BOUNDARY
 Ninterface, 1, 3, 0.0

*MATERIAL,NAME=MEMBRANE
*ELASTIC
 300000.000000, 0.330000
*DENSITY
 80.000000
*DAMPING, ALPHA=100.00, BETA=0.00

*SHELL SECTION, MATERIAL=MEMBRANE, ELSET=PLATE
 0.0001

*STEP, NLGEOM, INC=1000000
*DYNAMIC
 0.1, 50.

*CLOAD
 Ninterface, 1, 1, 0.0
 Ninterface, 2, 2, 0.0
 Ninterface, 3, 3, 0.0
*NODE FILE,OUTPUT=2D,FREQUENCY=1
 U, 
*EL FILE
 E, ME, S
*END STEP
