*INCLUDE, INPUT=geom.inp
*INCLUDE, INPUT=x0.nam
*INCLUDE, INPUT=y0.nam
*INCLUDE, INPUT=z0.nam

*BOUNDARY
 Nx0, 1, 1, 0.0
 Ny0, 2, 2, 0.0
 Nz0, 3, 3, 0.0

*MATERIAL,NAME=RUBBER
*ELASTIC
 3.000, 0.33
*DENSITY
 0.1
*DAMPING, ALPHA=100.00, BETA=0.00

*SHELL SECTION, MATERIAL=RUBBER, ELSET=SHELL, OFFSET=-0.5
 0.0025

*STEP, NLGEOM, INC=10000000
*STATIC
 1.0, 10.0, 0.01, 0.1

*CLOAD
 Ninterface, 1, 0.0
 Ninterface, 2, 0.0
 Ninterface, 3, 0.0

*NODE FILE,FREQUENCY=1
 U
*EL FILE
 E, ME, S

*END STEP
