*INCLUDE, INPUT=geom.inp
*INCLUDE, INPUT=x0.nam
*INCLUDE, INPUT=y0.nam
*INCLUDE, INPUT=z0.nam

*BOUNDARY
 Nx0, 1, 1, 0.0
 Ny0, 2, 2, 0.0
 Nz0, 3, 3, 0.0

*MATERIAL,NAME=RUBBER
*ELASTIC
 3.000, 0.33

*SHELL SECTION, MATERIAL=RUBBER, ELSET=SHELL, OFFSET=-0.5
 0.0025

*STEP, NLGEOM, INC=100000
*STATIC
 1.0, 1.0, 0.1, 0.1

*DLOAD
 SHELL, P1, 0.01

*NODE FILE,FREQUENCY=1
 U
*EL FILE
 E, ME, S

*END STEP
