SUMMARY OF JOB INFORMATION
  STEP      INC     ATT  ITRS     TOT TIME     STEP TIME      INC TIME
     1          1     1     2  0.100000E+00  0.100000E+00  0.100000E+00
     1          2     1     2  0.200000E+00  0.200000E+00  0.100000E+00
     1          3     1     2  0.350000E+00  0.350000E+00  0.150000E+00
     1          4     1     2  0.575000E+00  0.575000E+00  0.225000E+00
     1          5     1     2  0.912500E+00  0.912500E+00  0.337500E+00
     1          6     1     2  0.141875E+01  0.141875E+01  0.506250E+00
     1          7     1     2  0.217813E+01  0.217813E+01  0.759375E+00
     1          8     1     2  0.331719E+01  0.331719E+01  0.113906E+01
     1          9     1     2  0.502578E+01  0.502578E+01  0.170859E+01
     1         10     1     2  0.758867E+01  0.758867E+01  0.256289E+01
     1         11     1     2  0.114330E+02  0.114330E+02  0.384434E+01
     1         12     1     2  0.171995E+02  0.171995E+02  0.576650E+01
     1         13     1     2  0.258493E+02  0.258493E+02  0.864976E+01
     1         14     1     2  0.388239E+02  0.388239E+02  0.129746E+02
     1         15     1     2  0.500000E+02  0.500000E+02  0.111761E+02
