*INCLUDE, INPUT=geom.inp
*INCLDEU, INPUT=EDGE.nam

*BOUNDARY
 EDGE, 1, 3, 0.000000

*MATERIAL,NAME=RUBBER
*ELASTIC
 300000.000000, 0.330000
*DENSITY
 80.000000
*DAMPING, ALPHA=100.00, BETA=0.00

*SOLID SECTION, MATERIAL=RUBBER, ELSET=AIRFOIL

*STEP, NLGEOM, INC=1000000
*DYNAMIC
 0.01, 50., 0.00005, 0.1
*CLOAD
 Ninterface, 1, 1, 0.0
 Ninterface, 2, 2, 0.0
 Ninterface, 3, 3, 0.0
*NODE FILE,FREQUENCY=4
 U
*END STEP
