*INCLUDE, INPUT=geom.inp
*INCLUDE, INPUT=fixed.nam
*INCLUDE, INPUT=interface.nam

*BOUNDARY
 Nfixed, 1, 6, 0.000000
 Ninterface, 3, 4, 0.000000

*MATERIAL,NAME=RUBBER
*ELASTIC
 1.0e4, 0.33
*DENSITY
 920.0
*DAMPING, ALPHA=10.00, BETA=0.00

*SOLID SECTION, MATERIAL=RUBBER, ELSET=AIRFOIL

*STEP,NLGEOM,INC=100000
*DYNAMIC
 0.1, 100.0

*CLOAD
 Ninterface, 1, 1, 0.0
 Ninterface, 2, 2, 0.0
 Ninterface, 3, 3, 0.0

*NODE FILE,FREQUENCY=5
 U
*EL FILE
 E, ME, S
*END STEP
