*INCLUDE, INPUT=geom.inp

*BOUNDARY
 3, 1, 3, 0.0

*MATERIAL,NAME=RUBBER
*HYPERELASTIC, NEO HOOKE
 3000.0, 0.00001
*DENSITY
 1.0

*SHELL SECTION, MATERIAL=RUBBER, ELSET=SHELL, OFFSET=-0.5
 2.5

*STEP,NLGEOM,INC=100000
*STATIC
 0.1, 1000

** *DLOAD
**  SHELL, P1, 500.0

*CLOAD
 Ninterface, 1, 1, 0.0
 Ninterface, 2, 2, 0.0
 Ninterface, 3, 3, 0.0

*NODE FILE,FREQUENCY=1
 U
*EL FILE
 E, ME, S

*END STEP
